/*--------------------------------*- C++ -*----------------------------------*\
| =========                 |                                                 |
| \\      /  F ield         | OpenFOAM: The Open Source CFD Toolbox           |
|  \\    /   O peration     | Version:  1.6                                   |
|   \\  /    A nd           | Web:      www.OpenFOAM.org                      |
|    \\/     M anipulation  |                                                 |
\*---------------------------------------------------------------------------*/
FoamFile
{
    version     2.0;
    format      ascii;
    class       dictionary;
    location    "constant";
    object      transportProperties;
}
// * * * * * * * * * * * * * * * * * * * * * * * * * * * * * * * * * * * * * //

DC              DC [ 0 2 -1 0 0 0 0 ] 8.2e-6;
Sc              Sc [ 0 0 0 0 0 0 0 ] 1;
Sct             Sct [ 0 0 0 0 0 0 0 ] 100;
nu             nu [ 0 2 -1 0 0 0 0 ] 5e-7;
B		B  [ 0 0 0 1 0 0 0 ] 2444;
A		A  [ 0 -2 0 0 0 0 0 ] 1e-6;
d		d  [ 0 1 0 0 0 0 0 ] 1e-6;
kb		kb  [ 1 2 -2 -1 0 0 0 ] 1e-6;
rho		rho [ 1 -3 0 0 0 0 0] 900;

// ************************************************************************* //
