/*--------------------------------*- C++ -*----------------------------------*\
| =========                 |                                                 |
| \\      /  F ield         | OpenFOAM: The Open Source CFD Toolbox           |
|  \\    /   O peration     | Version:  1.6                                   |
|   \\  /    A nd           | Web:      http://www.OpenFOAM.org               |
|    \\/     M anipulation  |                                                 |
\*---------------------------------------------------------------------------*/
FoamFile
{
    version     2.0;
    format      ascii;
    class       volVectorField;
    object      j;
}
// * * * * * * * * * * * * * * * * * * * * * * * * * * * * * * * * * * * * * //

dimensions      [0 -1 0 0 0 0 0];

internalField   uniform (0 0 0);

boundaryField
{

  inlet
    {
        type            calculated;
    }
    wall
    {
        type            calculated;
    }
    outlet
    {
        type            calculated;//zeroGradient;
    }
    tube
    {
        type            calculated;
    }
    bottom
    {
        type            calculated;
    }
    heater1
    {
        type            calculated;
    }
    heater2
    {
        type            calculated;
    } 
}

// ************************************************************************* //
