/*--------------------------------*- C++ -*----------------------------------*\
| =========                 |                                                 |
| \\      /  F ield         | OpenFOAM: The Open Source CFD Toolbox           |
|  \\    /   O peration     | Version:  1.6                                   |
|   \\  /    A nd           | Web:      www.OpenFOAM.org                      |
|    \\/     M anipulation  |                                                 |
\*---------------------------------------------------------------------------*/
FoamFile
{
    version     2.0;
    format      ascii;
    class       dictionary;
    location    "system";
    object      controlDict;
}
// * * * * * * * * * * * * * * * * * * * * * * * * * * * * * * * * * * * * * //

application     scalarTransportFoam;

startFrom       startTime;//latestTime;

startTime       0;

stopAt          endTime;

endTime         17.5;

deltaT          0.25;

writeControl    timeStep;

writeInterval   10;

purgeWrite      0;

writeFormat     ascii;

writePrecision  6;

writeCompression uncompressed;

timeFormat      general;

timePrecision   6;

runTimeModifiable yes;

adjustTimeStep  off;

maxCo           0.4;

maxDeltaT       1;

libs ("libsimpleFunctionObjects.so" "libgroovyBC.so");


// ************************************************************************* //

//fieldAverage1
//{
//type
//fieldAverage;
//functionObjectLibs ("libfieldFunctionObjects.so");
//enabled
//true;
//outputControl
//outputTime;
//fields
//(
//C
//{
//mean
//on;
//prime2Mean on; //RMS
//base
//time;
//}
//);
//}
